disco/ev/example_feeders/opendss/ieee13/LineCodes.dss
new LineCode.0f2458b4-bad0-4ed0-a187-d5e1e7c08965 NPhases=3 Units=km RMatrix=(0.2153051181102363 0.09693390598902413 0.0981766483734988 |0.09693390598902413 0.20971277738010033 0.0953804780084308 |0.0981766483734988 0.0953804780084308 0.21213612502982584 ) XMatrix=(0.6324937365783825 0.3117419271454706 0.26321283703173465 |0.3117419271454706 0.6510727352262788 0.23916577189214996 |0.26321283703173465 0.23916577189214996 0.6429949097271934 ) CMatrix=(1.739839338264536 -0.3728227153424005 -0.3728227153424005 |-0.3728227153424005 1.739839338264536 -0.3728227153424005 |-0.3728227153424005 -0.3728227153424005 1.739839338264536 ) NormAmps=400.0
new LineCode.5eceec70-b9af-476b-b03a-a3096b197a35 NPhases=3 Units=km RMatrix=(0.46764395927781766 0.0981766483734988 0.09693390598902413 |0.0981766483734988 0.46447496619740725 0.0953804780084308 |0.09693390598902413 0.0953804780084308 0.46205161854768173 ) XMatrix=(0.7340879265091866 0.26321283703173465 0.3117419271454706 |0.26321283703173465 0.7445890996579976 0.23916577189214996 |0.3117419271454706 0.23916577189214996 0.7526047880378592 ) CMatrix=(1.739839338264536 -0.3728227153424005 -0.3728227153424005 |-0.3728227153424005 1.739839338264536 -0.3728227153424005 |-0.3728227153424005 -0.3728227153424005 1.739839338264536 ) NormAmps=400.0
new LineCode.cc66b3e3-fdaf-4796-865f-a0ad1474e511 NPhases=2 Units=km RMatrix=(0.8225711842837831 0.1283752883162332 |0.1283752883162332 0.8260508629603117 ) XMatrix=(0.8431385707468388 0.28527151435616016 |0.28527151435616016 0.8370491330629131 ) CMatrix=(1.739839338264536 -0.3728227153424005 |-0.3728227153424005 1.739839338264536 ) NormAmps=400.0
new LineCode.f3af2241-004b-4869-834c-d6e342fb2249 NPhases=3 Units=km RMatrix=(0.4919526216893345 0.19789181181897722 0.17612766443967237 |0.19789181181897722 0.48569417104112006 0.19789181181897722 |0.17612766443967237 0.19789181181897722 0.4919526216893345 ) XMatrix=(0.2723793048596198 0.017201915811659908 -0.011445905909488591 |0.017201915811659908 0.2464960878469738 0.017201915811659908 |-0.011445905909488591 0.017201915811659908 0.2723793048596198 ) CMatrix=(238.57422651714003 0.0 0.0 |0.0 238.57422651714003 0.0 |0.0 0.0 238.57422651714003 ) NormAmps=400.0
new LineCode.1bbe4c46-0f51-45fc-961e-8aab24168a95 NPhases=1 Units=km RMatrix=(0.8259265887218643 ) XMatrix=(0.8372976815398079 ) CMatrix=(1.739839338264536 ) NormAmps=400.0
new LineCode.996e48a5-1b2f-4bc7-8c0c-8b556d76bf1c NPhases=1 Units=km RMatrix=(0.834190825578621 ) XMatrix=(0.31839059890241 ) CMatrix=(146.64360136801085 ) NormAmps=400.0
